<?xml version="1.0" encoding="UTF-8"?>
<!DOCTYPE network SYSTEM "http://www.matsim.org/files/dtd/network_v1.dtd">
<network>
  <nodes>
    <node id="n_0_0" x="-100.0" y="-100.0" />
    <node id="n_1_0" x="100.0" y="-100.0" />
    <node id="n_2_0" x="-100.0" y="100.0" />
    <node id="n_3_0" x="100.0" y="100.0" />
  </nodes>
  <links>

  </links>
</network>